  450
 temp=    0.60000
H        14.0000000000       30.0000000000       73.0000000000
H        22.0000000000       72.0000000000       55.0000000000
H        30.0000000000       70.0000000000       55.0000000000
H        79.0000000000       88.0000000000       56.0000000000
H        52.0000000000        2.0000000000        1.0000000000
H        93.0000000000       82.0000000000       93.0000000000
H         4.0000000000       78.0000000000       91.0000000000
H        82.0000000000       31.0000000000       97.0000000000
H        49.0000000000       25.0000000000       59.0000000000
H        23.0000000000       77.0000000000       64.0000000000
H        83.0000000000        8.0000000000       65.0000000000
H        36.0000000000       83.0000000000       38.0000000000
H        64.0000000000       44.0000000000       40.0000000000
H        77.0000000000       61.0000000000       68.0000000000
H        23.0000000000       43.0000000000       17.0000000000
H        24.0000000000       94.0000000000       56.0000000000
H        19.0000000000       79.0000000000       91.0000000000
H        29.0000000000        5.0000000000       94.0000000000
H        74.0000000000       17.0000000000       10.0000000000
H        76.0000000000       55.0000000000       38.0000000000
H        18.0000000000       83.0000000000       56.0000000000
H        11.0000000000        3.0000000000       59.0000000000
H        20.0000000000       57.0000000000        5.0000000000
H        89.0000000000       41.0000000000       38.0000000000
H        48.0000000000       56.0000000000       93.0000000000
H        95.0000000000       76.0000000000       30.0000000000
H         6.0000000000       32.0000000000       34.0000000000
H        74.0000000000       96.0000000000       92.0000000000
H        11.0000000000       22.0000000000       24.0000000000
H        70.0000000000       24.0000000000       58.0000000000
H        44.0000000000       32.0000000000       25.0000000000
H        14.0000000000       11.0000000000       18.0000000000
H        78.0000000000       71.0000000000       98.0000000000
H        82.0000000000       96.0000000000       32.0000000000
H        92.0000000000       63.0000000000       34.0000000000
H        46.0000000000       38.0000000000       40.0000000000
H        88.0000000000       45.0000000000       86.0000000000
H        68.0000000000       10.0000000000       15.0000000000
H        15.0000000000       21.0000000000       19.0000000000
H        76.0000000000       32.0000000000        4.0000000000
H        50.0000000000       47.0000000000       32.0000000000
H        44.0000000000       77.0000000000       52.0000000000
H        69.0000000000       86.0000000000       29.0000000000
H        54.0000000000       84.0000000000       90.0000000000
H        32.0000000000       68.0000000000       54.0000000000
H        51.0000000000       95.0000000000        1.0000000000
H        25.0000000000      100.0000000000       89.0000000000
H        36.0000000000       15.0000000000       29.0000000000
H        72.0000000000        8.0000000000       57.0000000000
H        98.0000000000       85.0000000000       60.0000000000
H        94.0000000000       80.0000000000       68.0000000000
H        43.0000000000       40.0000000000       96.0000000000
H        57.0000000000        2.0000000000       13.0000000000
H         6.0000000000       27.0000000000       71.0000000000
H        52.0000000000       20.0000000000       87.0000000000
H        18.0000000000       35.0000000000        8.0000000000
H        19.0000000000       17.0000000000       30.0000000000
H        15.0000000000       58.0000000000       98.0000000000
H        77.0000000000       81.0000000000       12.0000000000
H        40.0000000000       10.0000000000       84.0000000000
H        13.0000000000       90.0000000000        7.0000000000
H         1.0000000000       31.0000000000       82.0000000000
H        67.0000000000       86.0000000000        1.0000000000
H       100.0000000000       44.0000000000       17.0000000000
H        38.0000000000       30.0000000000       36.0000000000
H        13.0000000000       38.0000000000       40.0000000000
H        44.0000000000       13.0000000000       24.0000000000
H        91.0000000000       53.0000000000       52.0000000000
H        57.0000000000       57.0000000000       57.0000000000
H        65.0000000000       83.0000000000       73.0000000000
H        19.0000000000        6.0000000000       21.0000000000
H        37.0000000000       72.0000000000       28.0000000000
H        23.0000000000       13.0000000000       19.0000000000
H        44.0000000000       64.0000000000       74.0000000000
H        66.0000000000       36.0000000000       55.0000000000
H        69.0000000000       61.0000000000      100.0000000000
H         5.0000000000       87.0000000000       29.0000000000
H        74.0000000000       84.0000000000       81.0000000000
H         7.0000000000       82.0000000000       23.0000000000
H        67.0000000000       74.0000000000       99.0000000000
H        90.0000000000       73.0000000000       66.0000000000
H        99.0000000000       27.0000000000       95.0000000000
H        64.0000000000       80.0000000000       76.0000000000
H        81.0000000000        1.0000000000       83.0000000000
H        77.0000000000       39.0000000000       73.0000000000
H        11.0000000000       23.0000000000      100.0000000000
H         5.0000000000       29.0000000000       71.0000000000
H        89.0000000000       89.0000000000       99.0000000000
H        36.0000000000       77.0000000000       53.0000000000
H        59.0000000000       82.0000000000       39.0000000000
H        67.0000000000        7.0000000000       51.0000000000
H         1.0000000000       10.0000000000        9.0000000000
H        95.0000000000       68.0000000000       87.0000000000
H        91.0000000000       16.0000000000        5.0000000000
H        91.0000000000        1.0000000000       36.0000000000
H        58.0000000000       27.0000000000       99.0000000000
H        69.0000000000       59.0000000000       93.0000000000
H         5.0000000000       17.0000000000        7.0000000000
H        55.0000000000       82.0000000000       76.0000000000
H        12.0000000000       16.0000000000        9.0000000000
H        39.0000000000       97.0000000000       20.0000000000
H        81.0000000000       77.0000000000       72.0000000000
H        49.0000000000       24.0000000000       89.0000000000
H        41.0000000000       93.0000000000       41.0000000000
H        76.0000000000       77.0000000000        5.0000000000
H        37.0000000000      100.0000000000       50.0000000000
H        14.0000000000       90.0000000000        3.0000000000
H        48.0000000000       15.0000000000       86.0000000000
H        92.0000000000       20.0000000000       86.0000000000
H        27.0000000000       68.0000000000       86.0000000000
H        84.0000000000       77.0000000000       31.0000000000
H        44.0000000000       62.0000000000       28.0000000000
H        25.0000000000       13.0000000000       68.0000000000
H        85.0000000000       48.0000000000       38.0000000000
H        40.0000000000       39.0000000000       78.0000000000
H         8.0000000000       28.0000000000       17.0000000000
H        60.0000000000       69.0000000000       16.0000000000
H        28.0000000000       88.0000000000       65.0000000000
H        90.0000000000       34.0000000000       95.0000000000
H        13.0000000000       51.0000000000       33.0000000000
H        51.0000000000       65.0000000000       18.0000000000
H        69.0000000000       87.0000000000       49.0000000000
H        26.0000000000       13.0000000000       57.0000000000
H        95.0000000000       51.0000000000       74.0000000000
H        68.0000000000       36.0000000000       30.0000000000
H        78.0000000000       30.0000000000       17.0000000000
H        66.0000000000       33.0000000000       71.0000000000
H        22.0000000000       76.0000000000       91.0000000000
H        19.0000000000       36.0000000000        2.0000000000
H         7.0000000000       72.0000000000       58.0000000000
H        47.0000000000       34.0000000000       42.0000000000
H        57.0000000000       95.0000000000       10.0000000000
H        76.0000000000       76.0000000000       20.0000000000
H        43.0000000000       26.0000000000       74.0000000000
H        18.0000000000        6.0000000000       55.0000000000
H        46.0000000000       29.0000000000       17.0000000000
H        30.0000000000       67.0000000000       74.0000000000
H        99.0000000000       55.0000000000       89.0000000000
H        50.0000000000        1.0000000000       86.0000000000
H        46.0000000000       53.0000000000       60.0000000000
H        35.0000000000       38.0000000000       76.0000000000
H        29.0000000000       83.0000000000       98.0000000000
H        45.0000000000       88.0000000000       84.0000000000
H         4.0000000000       84.0000000000       34.0000000000
H        99.0000000000       27.0000000000       10.0000000000
H        63.0000000000       87.0000000000       40.0000000000
H        69.0000000000       46.0000000000       22.0000000000
H        76.0000000000       86.0000000000        7.0000000000
H        71.0000000000       51.0000000000       37.0000000000
H        57.0000000000        1.0000000000       25.0000000000
O        10.0000000000        3.0000000000       42.0000000000
O        18.0000000000       39.0000000000       66.0000000000
O        85.0000000000       44.0000000000       99.0000000000
O        51.0000000000       29.0000000000       63.0000000000
O        64.0000000000       87.0000000000       22.0000000000
O        43.0000000000        1.0000000000       75.0000000000
O        71.0000000000        8.0000000000       65.0000000000
O        77.0000000000       24.0000000000       93.0000000000
O        17.0000000000       20.0000000000       35.0000000000
O        27.0000000000       90.0000000000       14.0000000000
O        38.0000000000       67.0000000000       71.0000000000
O         1.0000000000       57.0000000000       51.0000000000
O        15.0000000000       15.0000000000      100.0000000000
O        52.0000000000        8.0000000000        5.0000000000
O        11.0000000000       25.0000000000       98.0000000000
O        87.0000000000       63.0000000000       98.0000000000
O        98.0000000000       31.0000000000       35.0000000000
O         5.0000000000       21.0000000000       10.0000000000
O        73.0000000000       99.0000000000       34.0000000000
O        34.0000000000       15.0000000000        7.0000000000
O        45.0000000000       21.0000000000       77.0000000000
O        99.0000000000       35.0000000000       20.0000000000
O        42.0000000000       44.0000000000       36.0000000000
O       100.0000000000       43.0000000000       55.0000000000
O        39.0000000000        8.0000000000       76.0000000000
O        56.0000000000       75.0000000000       42.0000000000
O        81.0000000000       55.0000000000       98.0000000000
O       100.0000000000       49.0000000000       30.0000000000
O         9.0000000000       68.0000000000       75.0000000000
O        99.0000000000       21.0000000000       26.0000000000
O        10.0000000000       76.0000000000       76.0000000000
O        10.0000000000       90.0000000000       96.0000000000
O        27.0000000000       19.0000000000       95.0000000000
O         3.0000000000        7.0000000000       60.0000000000
O        89.0000000000       51.0000000000       27.0000000000
O        65.0000000000       62.0000000000       61.0000000000
O        73.0000000000       97.0000000000       56.0000000000
O        39.0000000000        9.0000000000       34.0000000000
O        52.0000000000       90.0000000000       72.0000000000
O        43.0000000000       29.0000000000       31.0000000000
O        45.0000000000       74.0000000000        1.0000000000
O        42.0000000000       17.0000000000       54.0000000000
O        21.0000000000       61.0000000000       61.0000000000
O        81.0000000000       21.0000000000       75.0000000000
O        22.0000000000       39.0000000000       90.0000000000
O        74.0000000000       14.0000000000       88.0000000000
O        52.0000000000       46.0000000000       20.0000000000
O        27.0000000000       60.0000000000       36.0000000000
O        90.0000000000       41.0000000000       49.0000000000
O        99.0000000000       41.0000000000       71.0000000000
O        37.0000000000       83.0000000000       23.0000000000
O        16.0000000000       12.0000000000       90.0000000000
O        67.0000000000       82.0000000000       11.0000000000
O        34.0000000000       24.0000000000       62.0000000000
O        17.0000000000       43.0000000000       72.0000000000
O        45.0000000000       67.0000000000        6.0000000000
O         3.0000000000       96.0000000000        4.0000000000
O        44.0000000000       65.0000000000       64.0000000000
O        72.0000000000       24.0000000000       16.0000000000
O        35.0000000000       87.0000000000       73.0000000000
O        30.0000000000       90.0000000000       79.0000000000
O        15.0000000000       97.0000000000       47.0000000000
O        69.0000000000       56.0000000000       30.0000000000
O        12.0000000000       81.0000000000       83.0000000000
O        44.0000000000       31.0000000000       11.0000000000
O        48.0000000000       63.0000000000       84.0000000000
O        44.0000000000       66.0000000000       33.0000000000
O         9.0000000000       61.0000000000       17.0000000000
O        96.0000000000       29.0000000000       13.0000000000
O        39.0000000000       56.0000000000       83.0000000000
O        92.0000000000       59.0000000000       40.0000000000
O        52.0000000000       40.0000000000       56.0000000000
O        38.0000000000       44.0000000000       42.0000000000
O        47.0000000000       58.0000000000       95.0000000000
O        49.0000000000       22.0000000000       62.0000000000
O         8.0000000000       98.0000000000        7.0000000000
O        69.0000000000        9.0000000000       87.0000000000
O        23.0000000000       61.0000000000       48.0000000000
O        90.0000000000       88.0000000000       64.0000000000
O         1.0000000000       60.0000000000       92.0000000000
O         7.0000000000       77.0000000000       83.0000000000
O        61.0000000000       96.0000000000       45.0000000000
O        56.0000000000       30.0000000000       67.0000000000
O        73.0000000000       54.0000000000       24.0000000000
O        41.0000000000       82.0000000000       63.0000000000
O        25.0000000000       43.0000000000       14.0000000000
O        53.0000000000       60.0000000000      100.0000000000
O        30.0000000000       88.0000000000       73.0000000000
O        26.0000000000       77.0000000000       26.0000000000
O        46.0000000000       72.0000000000       56.0000000000
O        34.0000000000       12.0000000000       34.0000000000
O         5.0000000000       84.0000000000       27.0000000000
O        21.0000000000       16.0000000000       89.0000000000
O        88.0000000000        3.0000000000       61.0000000000
O        97.0000000000       72.0000000000        6.0000000000
O        91.0000000000        7.0000000000       12.0000000000
O        11.0000000000       69.0000000000       26.0000000000
O        69.0000000000        3.0000000000       77.0000000000
O        88.0000000000        6.0000000000       29.0000000000
O        86.0000000000       23.0000000000       82.0000000000
O        32.0000000000       77.0000000000       64.0000000000
O         6.0000000000       42.0000000000       82.0000000000
O         1.0000000000       43.0000000000       73.0000000000
O        28.0000000000        8.0000000000       12.0000000000
O         1.0000000000       17.0000000000       70.0000000000
O        82.0000000000       14.0000000000       78.0000000000
O        10.0000000000       10.0000000000       17.0000000000
O        63.0000000000       93.0000000000       28.0000000000
O        82.0000000000       54.0000000000       21.0000000000
O        62.0000000000       27.0000000000       17.0000000000
O        76.0000000000       70.0000000000       38.0000000000
O        30.0000000000       35.0000000000       27.0000000000
O        60.0000000000        9.0000000000       64.0000000000
O        88.0000000000       90.0000000000       90.0000000000
O        44.0000000000       35.0000000000       54.0000000000
O        15.0000000000       31.0000000000       65.0000000000
O        47.0000000000       29.0000000000        4.0000000000
O        42.0000000000        9.0000000000       47.0000000000
O        56.0000000000       61.0000000000       31.0000000000
O        27.0000000000       45.0000000000       72.0000000000
O         5.0000000000       59.0000000000       15.0000000000
O        56.0000000000       53.0000000000       57.0000000000
O        38.0000000000       91.0000000000      100.0000000000
O        82.0000000000       47.0000000000       23.0000000000
O        64.0000000000       79.0000000000        6.0000000000
O        68.0000000000       72.0000000000       12.0000000000
O        69.0000000000       59.0000000000       20.0000000000
O        89.0000000000       58.0000000000       74.0000000000
O        56.0000000000        1.0000000000       92.0000000000
O        36.0000000000       80.0000000000       40.0000000000
O        69.0000000000       58.0000000000       48.0000000000
O        67.0000000000       91.0000000000       13.0000000000
O        79.0000000000        6.0000000000       17.0000000000
O        53.0000000000       32.0000000000       88.0000000000
O        36.0000000000       57.0000000000       11.0000000000
O        32.0000000000       60.0000000000       91.0000000000
O        53.0000000000       92.0000000000       97.0000000000
O        23.0000000000       41.0000000000       27.0000000000
O        41.0000000000       73.0000000000       86.0000000000
O        85.0000000000       10.0000000000       90.0000000000
O        54.0000000000       45.0000000000       20.0000000000
O        73.0000000000       67.0000000000       88.0000000000
O        29.0000000000       92.0000000000       30.0000000000
O        72.0000000000       19.0000000000       84.0000000000
O        56.0000000000       99.0000000000       54.0000000000
O        12.0000000000       32.0000000000       32.0000000000
O        28.0000000000       12.0000000000       71.0000000000
O        44.0000000000       53.0000000000        5.0000000000
O        91.0000000000        9.0000000000       88.0000000000
O        10.0000000000       83.0000000000       62.0000000000
O        60.0000000000       41.0000000000       72.0000000000
O         3.0000000000       11.0000000000       96.0000000000
O        35.0000000000       71.0000000000       66.0000000000
O        90.0000000000       84.0000000000       54.0000000000
O        56.0000000000       45.0000000000       21.0000000000
O        90.0000000000       85.0000000000       30.0000000000
O        10.0000000000       24.0000000000       43.0000000000
O        48.0000000000       44.0000000000       51.0000000000
O        49.0000000000       83.0000000000       74.0000000000
O        42.0000000000       48.0000000000       16.0000000000
O        16.0000000000       26.0000000000       97.0000000000
O        47.0000000000        3.0000000000       89.0000000000
O        54.0000000000       84.0000000000       83.0000000000
O        97.0000000000       26.0000000000       31.0000000000
O        89.0000000000       78.0000000000       93.0000000000
O        14.0000000000       50.0000000000       32.0000000000
O        61.0000000000       79.0000000000       70.0000000000
O        79.0000000000       38.0000000000       55.0000000000
O        51.0000000000       41.0000000000        2.0000000000
O        13.0000000000       19.0000000000       46.0000000000
O        70.0000000000       43.0000000000       58.0000000000
O        23.0000000000       11.0000000000       29.0000000000
O        48.0000000000       76.0000000000       53.0000000000
O        53.0000000000       48.0000000000       89.0000000000
O        84.0000000000       43.0000000000       93.0000000000
O        70.0000000000       33.0000000000       62.0000000000
O        76.0000000000       46.0000000000       73.0000000000
O        94.0000000000       53.0000000000       99.0000000000
O        84.0000000000       51.0000000000       54.0000000000
O        48.0000000000       16.0000000000        1.0000000000
O        77.0000000000       53.0000000000        2.0000000000
O        32.0000000000       93.0000000000       98.0000000000
O        16.0000000000       36.0000000000       89.0000000000
O        45.0000000000        7.0000000000       59.0000000000
O        25.0000000000       99.0000000000       58.0000000000
O        47.0000000000       37.0000000000       25.0000000000
O        48.0000000000        4.0000000000       68.0000000000
O        30.0000000000       32.0000000000       71.0000000000
O        17.0000000000       43.0000000000       81.0000000000
O        22.0000000000       94.0000000000       55.0000000000
O        97.0000000000        2.0000000000       96.0000000000
O        77.0000000000       89.0000000000       35.0000000000
O        58.0000000000       10.0000000000        7.0000000000
O        85.0000000000       73.0000000000       43.0000000000
O        77.0000000000      100.0000000000        6.0000000000
O        22.0000000000       46.0000000000       91.0000000000
O        52.0000000000       23.0000000000       23.0000000000
O        45.0000000000       32.0000000000       52.0000000000
O        93.0000000000       84.0000000000        5.0000000000
O        67.0000000000       94.0000000000       76.0000000000
O        59.0000000000       53.0000000000       19.0000000000
O        38.0000000000       85.0000000000       82.0000000000
O        51.0000000000       55.0000000000       29.0000000000
O        65.0000000000       69.0000000000       66.0000000000
O        21.0000000000       12.0000000000       29.0000000000
O        92.0000000000        1.0000000000       17.0000000000
O        63.0000000000       83.0000000000       39.0000000000
O        62.0000000000       97.0000000000       50.0000000000
O        67.0000000000        8.0000000000       87.0000000000
O        81.0000000000       34.0000000000       94.0000000000
O        34.0000000000       40.0000000000       36.0000000000
O        10.0000000000       56.0000000000        6.0000000000
O         4.0000000000       10.0000000000       68.0000000000
O         2.0000000000       75.0000000000       98.0000000000
O        67.0000000000       85.0000000000        6.0000000000
O        17.0000000000       72.0000000000       40.0000000000
O        38.0000000000       31.0000000000       25.0000000000
O        71.0000000000       48.0000000000       71.0000000000
O        81.0000000000       47.0000000000       27.0000000000
O        52.0000000000       42.0000000000       66.0000000000
O        76.0000000000       42.0000000000       60.0000000000
O        71.0000000000       61.0000000000       81.0000000000
O        48.0000000000       84.0000000000       24.0000000000
O        41.0000000000       87.0000000000       57.0000000000
O        78.0000000000       95.0000000000       56.0000000000
O        78.0000000000       52.0000000000       48.0000000000
O        23.0000000000       47.0000000000       91.0000000000
O        54.0000000000       20.0000000000       86.0000000000
O        76.0000000000        8.0000000000        2.0000000000
O        10.0000000000       86.0000000000       49.0000000000
O        53.0000000000       71.0000000000       91.0000000000
O         4.0000000000       44.0000000000       99.0000000000
O        51.0000000000        4.0000000000        4.0000000000
O        42.0000000000       98.0000000000       75.0000000000
O        38.0000000000       15.0000000000       76.0000000000
O        41.0000000000        5.0000000000       68.0000000000
O        75.0000000000       77.0000000000       25.0000000000
O        67.0000000000       67.0000000000       89.0000000000
O        38.0000000000       30.0000000000      100.0000000000
O        46.0000000000       39.0000000000       29.0000000000
O        40.0000000000       79.0000000000       76.0000000000
O        40.0000000000       29.0000000000       75.0000000000
O        41.0000000000        2.0000000000       90.0000000000
O        67.0000000000       68.0000000000        7.0000000000
O         1.0000000000       10.0000000000       18.0000000000
